  
       XFOIL         Version 6.99
  
 Calculated polar for: NACA 2412                                       
  
 1 1 Reynolds number fixed          Mach number fixed         
  
 xtrf =   1.000 (top)        1.000 (bottom)  
 Mach =   0.000     Re =     0.500 e 6     Ncrit =   9.000  9.000
  
   alpha    CL        CD       CDp       CM     Top_Xtr  Bot_Xtr  Top_Itr  Bot_Itr
  ------ -------- --------- --------- -------- -------- -------- -------- --------
  -6.000  -0.4423   0.01232   0.00364  -0.0526   0.9724   0.0595   3.6408 100.8986
  -5.000  -0.3058   0.01072   0.00265  -0.0580   0.9581   0.0905   4.6787 103.7743
  -4.000  -0.1883   0.00948   0.00197  -0.0590   0.9335   0.1527   6.3093 108.1815
  -3.000  -0.0807   0.00845   0.00151  -0.0576   0.8970   0.2562   8.5954 114.6693
  -2.000   0.0258   0.00756   0.00117  -0.0561   0.8509   0.4073  11.4285 123.7147
  -1.000   0.1288   0.00668   0.00103  -0.0537   0.7948   0.6524  14.8538 138.2433
   0.000   0.2290   0.00630   0.00109  -0.0499   0.7306   0.8535  18.7687 150.0687
   1.000   0.3444   0.00665   0.00122  -0.0491   0.6619   0.9649  22.9539 156.8647
   2.000   0.5040   0.00720   0.00131  -0.0592   0.5891   0.9967  27.3905 159.6115
   3.000   0.6108   0.00769   0.00130  -0.0585   0.5263   1.0000  31.2247 160.0000
   4.000   0.7063   0.00829   0.00138  -0.0552   0.4652   1.0000  34.9639 160.0000
   5.000   0.8022   0.00902   0.00154  -0.0520   0.3968   1.0000  39.1919 160.0000
   6.000   0.8967   0.01016   0.00185  -0.0488   0.3019   1.0000  45.1946 160.0000
   7.000   0.9859   0.01201   0.00255  -0.0453   0.1842   1.0000  52.8893 160.0000
   8.000   1.0710   0.01427   0.00362  -0.0413   0.0952   1.0000  59.3024 160.0000
   9.000   1.1531   0.01656   0.00487  -0.0370   0.0587   1.0000  62.6807 160.0000
  10.000   1.2276   0.01904   0.00630  -0.0316   0.0435   1.0000  64.5864 160.0000
  11.000   1.2817   0.02206   0.00807  -0.0236   0.0354   1.0000  65.8355 160.0000
  12.000   1.3254   0.02598   0.01055  -0.0160   0.0305   1.0000  66.7410 160.0000
  13.000   1.3553   0.03164   0.01440  -0.0097   0.0269   1.0000  67.4764 160.0000
  14.000   1.3679   0.03992   0.02027  -0.0056   0.0244   1.0000  68.0326 160.0000
  15.000   1.3816   0.04936   0.02752  -0.0045   0.0226   1.0000  68.4898 160.0000
  16.000   1.3797   0.06148   0.03700  -0.0058   0.0210   1.0000  68.8856 160.0000
