  
       XFOIL         Version 6.99
  
 Calculated polar for: NACA 2412                                       
  
 1 1 Reynolds number fixed          Mach number fixed         
  
 xtrf =   1.000 (top)        1.000 (bottom)  
 Mach =   0.000     Re =     0.050 e 6     Ncrit =   9.000  9.000
  
   alpha    CL        CD       CDp       CM     Top_Xtr  Bot_Xtr  Top_Itr  Bot_Itr
  ------ -------- --------- --------- -------- -------- -------- -------- --------
  -6.000  -0.5538   0.04180   0.02630  -0.0326   1.0000   0.1765   1.0000 109.7201
  -5.000  -0.4864   0.03282   0.01726  -0.0280   1.0000   0.2082   1.0000 111.7163
  -4.000  -0.4018   0.02737   0.01216  -0.0244   1.0000   0.2780   1.0000 115.9945
  -3.000  -0.3131   0.02372   0.00984  -0.0208   1.0000   0.4290   1.0000 125.0064
  -2.000  -0.2485   0.02138   0.00987  -0.0081   1.0000   0.7912   1.0000 146.4038
  -1.000  -0.1285   0.02203   0.00978  -0.0156   1.0000   1.0000   1.0000 160.0000
   0.000  -0.0563   0.02431   0.01144  -0.0160   0.9970   1.0000   1.3630 160.0000
   1.000   0.1437   0.02824   0.01494  -0.0382   0.9332   1.0000   6.3320 160.0000
   2.000   0.3049   0.03103   0.01746  -0.0505   0.8679   1.0000  10.3846 160.0000
   3.000   0.4534   0.03311   0.01933  -0.0579   0.8048   1.0000  14.2442 160.0000
   4.000   0.6040   0.03372   0.01984  -0.0617   0.7435   1.0000  17.9831 160.0000
   5.000   0.7205   0.03432   0.02021  -0.0584   0.6740   1.0000  22.2189 160.0000
   6.000   0.8490   0.03278   0.01826  -0.0530   0.5937   1.0000  27.1113 160.0000
   7.000   0.9571   0.03150   0.01581  -0.0445   0.4840   1.0000  33.8108 160.0000
   8.000   1.0358   0.03214   0.01401  -0.0338   0.3384   1.0000  42.8710 160.0000
   9.000   1.0968   0.03789   0.01680  -0.0249   0.2211   1.0000  50.4333 160.0000
  10.000   1.1651   0.04701   0.02317  -0.0193   0.1664   1.0000  54.1013 160.0000
  11.000   1.1731   0.05988   0.03485  -0.0100   0.1451   1.0000  55.5779 160.0000
  12.000   1.1285   0.07598   0.04908  -0.0013   0.1384   1.0000  56.0561 160.0000
  14.000   0.5862   0.16468   0.12881  -0.0383   0.2865   1.0000  46.1804 160.0000
  15.000   0.6029   0.17629   0.14197  -0.0392   0.2577   1.0000  48.0426 160.0000
  16.000   0.5945   0.18252   0.15468  -0.0415   0.2316   1.0000  49.7414 160.0000
